bsd
dax
serie
mey
inra
high
slick
wrc
cac
atos
jess
larry
féval
hiver
fixer
ourdi
règle
valon
well
vita
foy
rance
tibur
gomer
range
aneb
saule
kyste
pme
gatte
terra
lyon
ouzou
bars
volée
zaga
fois
shoki
ier
haïm
hévéa
corse
brent
fête
inn
java
stage
amant
cycle
fifa
média
wilno
juré
bongo
grant
linge
vigo
ghaza
baule
élan
qatar
éva
felix
agile
sami
khaya
censé
asia
slump
kathy
démo
lizzi
can
mika
wbc
shell
nom
miner
fermé
bémol
next
trobe
frico
ichc
sud
huet
thé
wings
daan
ree
bondé
borde
radek
gronk
bille
gmv
doter
pcf
metsu
arden
all
music
toreo
après
cnor
ant
argit
isrs
zero
micks
lte
linji
hta
riom
ana
xviie
dauer
mille
matas
kirin
sismi
van
joyce
manea
seth
bas
marie
pomme
how
sncf
santo
scudo
ère
azoté
trace
braun
clé
cbs
godde
rezé
tunis
narew
décor
urle
avoué
otowa
unis
viiie
rétro
ainsi
orry
flux
nègre
page
scott
lopez
asu
mdeur
bde
fond
cedh
frye
thorn
thor
jushi
khang
rome
ofena
maker
cen
ovale
good
scout
motte
lick
rod
arène
psa
loto
mit
hell
rival
creux
zep
freie
tôt
new
oued
wynn
act
basf
eliot
porte
dupe
picq
tueur
rumi
sarde
rhone
tha
pois
unir
sadi
lacté
homps
affût
sedan
oum
joann
signo
pied
moth
pluie
ouest
santi
homer
pepsi
puvis
paige
reed
habib
milan
flou
gala
vale
irsna
mac
plaie
ivan
man
ayant
inf
vol
trame
senoi
roi
oséen
dent
nella
moore
kid
gunga
gouye
paver
mètre
ztv
icco
leh
guet
pain
drake
levy
voip
osce
kagyu
flipo
savs
ducat
magic
fetih
échec
bénit
beige
viol
aeris
bégon
dark
forum
afc
days
soin
bryon
épire
low
macon
arx
emma
golfe
eden
robe
infra
lhd
vanne
hardy
riz
wise
bucks
jambe
abbes
larme
coups
miser
cozzo
nexus
west
iduna
moas
that
butin
kwamb
grain
class
manan
silex
yen
nuno
hdz
mcdo
chery
trust
mamao
ramos
melua
bob
beck
radle
cia
delft
pais
manny
hergé
canne
avion
âgé
bus
byron
eick
drôle
delem
luna
finir
louer
cobb
ibm
flute
kyrie
pont
sai
piano
apex
clade
côte
voie
repli
muret
law
linda
wow
crtc
lisak
jury
katia
pro
dis
casa
noire
capua
kanji
rasd
niu
binh
bonn
loet
ataka
dufer
valva
japon
pagne
être
écart
titre
doute
rampe
carpi
pire
bible
rabbi
demon
pmr
vertu
glacé
ivor
pulp
vache
argan
ricky
yura
limit
peres
lundi
semeï
toast
arp
hesse
emaki
ponty
cergy
alain
total
école
état
lords
loyer
eggs
grecs
demos
holt
ehud
chaux
unia
hms
jouir
mavro
igpn
matsu
mage
novo
bent
odile
jesus
delos
isolé
cow
porgy
rabta
enria
diète
ttss
pileo
dock
kurys
vies
aigle
encre
honda
bugs
kamui
palet
sorte
pavie
sting
fitz
coppa
gré
trois
roboh
rigen
dorer
aspic
gspc
joly
iris
pagus
vitre
cfa
paroi
camp
kalou
echo
jeol
socle
viard
placé
dgla
okita
liz
bni
eta
wince
pgm
maint
lié
obèse
abûl
five
ade
canet
human
oural
cumin
habbo
ways
delà
rohan
nadu
talca
taxi
voile
joue
elfes
sony
bates
xabi
noyau
vieux
wef
année
baxa
heurt
juge
gide
landa
slime
xmltv
jour
sean
jésus
perte
dylan
kazan
jack
divin
moshé
sun
marge
bam
xiv
héron
kot
pale
smith
lilli
robbe
canot
jaysh
poem
rural
béni
mundo
jnane
derek
image
basso
ecw
sopot
miley
are
cjue
tull
cerf
plein
sévir
dirk
mort
soi
alex
mazza
crows
altho
vigne
town
fief
bauer
laura
luc
frout
hal
bode
della
sous
sacré
veine
qabus
aja
aucun
kyle
stan
tamîm
perez
thot
poêle
voor
lys
mod
curie
del
key
itf
gerry
rubis
saoul
recru
écrit
dei
cao
cda
othon
lyn
kunst
alpin
capra
égard
drap
coin
punk
copte
ceca
quota
ogre
ranu
cold
femme
carli
abdo
huang
king
coca
vivo
bahia
salis
voire
press
famer
œil
rive
mûsul
sos
banne
asdel
berta
épine
pass
stein
duke
fbc
oris
vas
yonge
bad
roche
moldu
house
lucie
corey
ngota
sawan
nasa
mêler
rufum
lara
atrf
ego
jura
norbu
end
yolo
gram
palud
noirs
débat
kong
litre
opera
tilde
indus
largo
bloch
gavin
gin
laguz
vegas
her
cuire
capot
fesni
level
aires
rené
pré
evers
revel
wmvp
kafka
céret
ang
passi
enfin
beaud
arzni
acp
chait
maxim
breda
guide
riki
aisne
beal
muet
bloor
dunn
rhin
vence
héros
loi
seen
sally
midas
woods
tao
coke
gimme
mcgee
rob
tyril
adisq
tower
gregg
zoni
bnp
bach
poems
oryx
bruma
proba
mile
givre
vaux
bius
pib
maka
rams
flot
kovno
sur
buh
fern
sahel
chin
giulo
short
bit
htc
arche
shoe
nike
rugby
ingo
video
ragot
tours
sive
efeo
kenzi
pole
vih
pap
conor
raoul
foix
rat
kojak
phi
anpea
css
turka
reims
ustio
isaac
viêt
senne
dps
csf
bowie
khmer
vrac
pldm
kriss
alo
motor
cook
hôtel
clan
grga
tuer
local
dida
papes
world
sonam
sien
zidor
bain
shan
doubs
ens
cluse
choix
yacht
douce
mythe
bois
touil
ski
sing
èbre
silo
clyde
rôle
ouï
seiz
lukas
bamba
kea
doux
bernd
stato
ponce
ready
sen
raté
orlow
cure
connu
cadet
cours
xxx
perdu
horn
brel
put
gerle
bovin
virer
ock
neveu
taeda
lens
score
gdem
poème
pères
zorro
syrte
noè
kwi
cdd
ruben
carlo
roger
gall
rko
offre
rxvt
folk
nayef
muset
venir
yoga
lyman
vente
édith
mir
des
down
river
tutin
cyrus
farm
odéon
ceuta
flak
ajout
troi
sort
sec
zona
déjà
dose
aston
châh
folio
haine
tom
obed
vrtti
zabel
devés
him
btp
ame
punta
raj
clone
anton
aube
buchy
khor
venue
few
pedro
poste
lave
dal
nicca
mijek
aït
elie
sifah
parer
âge
avn
nsa
menu
tuân
hivon
aaro
anjou
have
duhok
bing
yalin
place
obeid
ava
légal
gau
idol
accru
jeu
ptit
nuits
crème
haden
hose
gent
droz
liber
sail
cordé
tenir
tenth
reese
riel
piété
conte
mrc
regan
hôte
outil
genis
égal
juif
régal
gréer
titus
zfone
lopes
mecha
apce
fosse
droit
coi
ufe
corti
ramo
pivot
gmina
mlt
mat
krupp
banat
baron
aoun
oman
sly
ard
trés
niort
vele
sevel
pic
oahu
niels
litta
raizo
adolf
breur
bryan
force
kiai
jose
frci
ayoun
pamuk
sme
von
apéro
abîme
furax
kuru
giray
fplp
joli
kerk
reb
bombé
lors
fisc
cruz
basra
brwv
pcq
sweet
bénir
nizâm
omari
passo
doduo
oxyde
talia
viva
bêche
sacre
stacy
verdi
ulm
quel
thani
frost
engin
levée
apte
dusty
moue
grau
dame
étape
saga
armée
gal
ninas
sevez
ritmx
soda
forge
lnh
nue
yale
aar
talon
dodo
dina
futur
suivi
aemo
stipe
indes
mener
bihar
hiri
rtbf
trône
faq
tang
seo
amgid
casas
admr
dante
denez
ochoa
citer
aix
tark
élus
boom
jurer
foras
blême
jorge
impur
wily
moody
sta
cory
sidon
jewel
gâter
foul
délai
inari
kei
corus
davis
yacé
radan
rmjq
yeshe
huile
pmp
guyet
mayo
wada
crlcc
peser
nuire
buha
fil
bond
izik
donzy
kairi
mezza
calme
gace
ovide
hugon
sourd
bapho
rente
bjorn
imar
aboun
cnrs
façon
head
prise
champ
usque
linné
sucré
aujon
tomoe
afl
tuum
stand
tlc
pnl
été
pavé
paris
vent
bardi
toshi
aziz
anny
guise
foie
road
yate
oren
ocean
bafo
baol
deer
tocco
valle
ouaga
buon
stone
anion
stark
bee
olavi
matéo
dont
snap
gatô
roar
han
deir
bidon
gois
suite
ultra
tifft
yang
npa
hava
jazz
ésta
cène
eton
loti
prion
sune
loman
séoul
late
bejar
jadis
folke
dalle
ruby
foz
intp
sunga
qix
hampe
artie
spies
ehpad
arnm
byng
gérer
roms
bryas
raie
duban
luck
salah
jung
imm
serra
bouts
viola
donn
into
essex
sonde
eugen
mspd
wild
opep
falca
inuit
lucia
caché
damon
ncaa
freud
issu
arves
takis
ietf
balai
dos
norme
hawks
kier
stomy
pump
beau
drac
meyer
allah
spor
fred
ghola
rond
flash
torah
émile
cissé
ega
hip
veto
fût
zola
moss
cardo
joe
media
psoe
diels
tard
gabès
statu
igor